[TITLE]
DXF->Stanet									 

[JUNCTIONS]
 HA005                               116.5000
 HA004                               116.5000
 HA007                               116.5000
 HA008                               116.5000
 HAXX0212                            116.5000
 HA002                               116.5000
 HAXX0174                            116.5000
 HAXX0262                            116.5000
 HAXX0261                            116.5000
 HA011                               116.5000
 HAXX0226                            116.5000
 HAXX0225                            116.5000
 HAXX0258                            116.5000
 HAXX0266                            116.9500
 HA012                               116.9500
 HA014                               116.9500
 HA013                               116.9500
 HAXX0209                            116.9500
 HAXX0210                            116.0000
 HA015                               116.9500
 HA016                               116.9500
 HA017                               116.9500
 HA018                               116.9500
 HA019                               116.9500
 HAXX0218                            116.9500
 HA020                               116.9500
 HA021                               116.0000
 HA022                               116.9000
 HA023                               116.9000
 HA024                               116.9000
 HAXX0219                            116.9000
 HA025                               116.9000
 HA026                               116.9000
 HA027                               116.9000
 HA028                               116.9000
 HA029                               116.9000
 HA030                               116.9000
 HA031                               116.9000
 HA033                               116.9000
 HA034                               116.9000
 HA035                               116.9000
 HAXX0223                            116.9000
 HAXX0088                            116.9000
 HAXX0086                            116.9000
 HAXX0085                            116.9000
 HA036                               116.9000
 HAXX0075                            116.9000
 HA037                               116.9000
 HA038                               116.9000
 HA039                               116.9000
 HAXX0277                            116.9000
 HA040                               116.9000
 HAXX0279                            116.9000
 HAXX0084                            116.9000
 HAXX0083                            116.9000
 HAXX0082                            117.3000
 HAXX0080                            117.2900
 HAXX0078                            116.9000
 HAXX0077                            116.9000
 HA041                               116.9000
 HA042                               116.9000
 HA043                               116.9000
 HA044                               116.9000
 HA045                               116.9000
 HA046                               116.9000
 HAXX0072                            116.9000
 HAXX0071                            116.9000
 HA047                               116.9000
 HAXX0069                            116.4700
 HA048                               116.9000
 HA049                               117.0000
 HA050                               116.9000
 HA051                               116.9000
 HA052                               116.5500
 HA053                               116.5500
 HAXX0064                            116.2100
 HA054                               116.9000
 HAXX0063                            116.5500
 HAXX0062                            116.1500
 HA055                               116.6000
 HAXX0061                            116.2000
 HAXX0059                            115.8900
 HA056                               116.6000
 HAXX0050                            116.6000
 HAXX0053                            116.6000
 HA057                               116.6000
 HA058                               116.6000
 HAXX0048                            116.6000
 HA059                               116.6000
 HAXX0046                            116.3100
 HAXX0056                            116.2700
 HA060                               116.6000
 HAXX0058                            116.6000
 HAXX0045                            116.6000
 HA061                               116.6000
 HAXX0044                            115.8000
 HAXX0043                            116.1000
 HA062                               116.1000
 HAXX0040                            116.1000
 HA063                               115.6200
 HAXX0037                            115.8500
 HA064                               115.7300
 HAXX0109                            116.1100
 HA065                               116.5500
 HA066                               116.5500
 HA067                               115.8000
 HA068                               115.8000
 HAXX0021                            116.2100
 HAXX0022                            115.8000
 HA069                               115.8000
 HAXX0019                            116.3000
 HA070                               115.8000
 HAXX0018                            115.8000
 HAXX0016                            116.1000
 HAXX0028                            116.1000
 HA072                               115.8000
 HA073                               115.8000
 HA074                               115.8000
 HAXX0024                            115.8000
 HAXX0031                            116.2000
 HA075                               115.8000
 HA076                               115.8000
 HAXX0034                            115.4000
 HA077                               116.1000
 HAXX0035                            116.1000
 HA078                               115.8000
 HAXX0221                            115.8000
 HA079                               115.8000
 HAXX0006                            115.8000
 HA080                               115.3000
 HA081                               115.8000
 HA082                               115.8000
 HA083                               115.8000
 HA084                               117.8000
 4000                                145.7300
 HA086                               115.8000
 HAXX0010                            115.7000
 HA087                               115.8000
 HAXX0012                            115.8000
 HA088                               115.8000
 HAXX0013                            116.3000
 HA090                               115.8000
 HAXX0029                            115.8000
 HAXX0030                            115.8000
 HAXX0095                            116.3800
 HAXX0096                            116.5500
 HAXX0097                            116.5500
 HAXX0098                            116.0400
 HA091                               116.5500
 HA092                               116.5500
 HA093                               116.5500
 HAXX0099                            116.5500
 HA094                               116.5500
 HAXX0264                            115.8600
 HA095                               116.5500
 HA096                               116.5500
 HAXX0161                            116.4000
 HA097                               116.9500
 HAXX0164                            116.0000
 HA098                               116.9500
 HAXX0166                            116.9500
 HA099                               116.9500
 HA100                               116.9000
 HA101                               116.9000
 HAXX0167                            117.0000
 HAXX0168                            116.9500
 HAXX0169                            116.9500
 HAXX0170                            116.9500
 HAXX0108                            116.3800
 HA102                               116.5500
 HAXX0110                            116.5500
 HA103                               116.3000
 HA104                               116.0000
 HA105                               115.7000
 HA106                               115.7000
 HA107                               116.5500
 HAXX0111                            115.7700
 HAXX0112                            115.3700
 HAXX0160                            116.9500
 HAXX0159                            116.7000
 HAXX0158                            116.5000
 HA108                               116.5000
 HAXX0246                            116.8100
 HA109                               116.0000
 HAXX0157                            116.0000
 HA110                               116.5000
 HAXX0173                            116.5000
 HAXX0156                            116.0000
 HAXX0155                            116.0300
 HA112                               115.9500
 HA113                               115.9000
 HA114                               115.9000
 HAXX0151                            115.9000
 HAXX0230                            115.4300
 HAXX0233                            115.0000
 HA115                               115.0700
 HA116                               115.7000
 HA117                               115.5000
 HAXX0115                            115.1600
 HA118                               115.7000
 HAXX0114                            115.7000
 HAXX0149                            115.9000
 HA119                               115.9000
 HAXX0270                            115.9000
 HAXX0148                            115.9000
 HAXX0147                            115.9000
 HA120                               116.0000
 HA121                               116.1500
 HA122                               116.1500
 RHHA0130                            116.1500
 HA123                               116.1500
 HA124                               116.1500
 HA125                               116.1500
 HAXX0146                            116.1500
 HA126                               116.1500
 HA127                               116.1500
 HAXX0142                            116.6400
 HAXX0144                            116.1000
 HA128                               116.1500
 HAXX0139                            115.2700
 HA129                               116.1500
 HA130                               116.1500
 HAXX0136                            116.1000
 HA131                               116.1500
 HAXX0134                            116.1500
 HAXX0133                            116.1500
 HA132                               116.1500
 HA133                               116.1500
 HAXX0137                            115.4400
 HA134                               116.1500
 HAXX0126                            116.1000
 HA135                               116.1500
 HAXX0123                            116.0000
 HAXX0125                            114.9100
 HAXX0122                            115.9000
 HAXX0121                            115.7000
 HA136                               115.6000
 HAXX0120                            115.3300
 HAXX0039                            115.6200
 HA137                               116.1000
 HAXX0191                            115.7500
 HA138                               115.3000
 HAXX0186                            115.0000
 HAXX0184                            116.1000
 HAXX0182                            116.1000
 HAXX0234                            116.1000
 HAXX0192                            115.5500
 HA139                               116.1000
 HAXX0200                            115.4100
 HA140                               115.5000
 HAXX0198                            115.3300
 HA141                               115.5000
 HAXX0197                            115.3600
 HAXX0196                            115.5000
 HAXX0203                            115.4100
 HA142                               116.1000
 HA143                               116.1500
 HA144                               116.0000
 HA145                               116.0000
 HA146                               116.0000
 HA147                               116.0000
 HA148                               115.8000
 HA149                               115.5000
 HA150                               115.5000
 HA151                               115.0000
 HA152                               115.0000
 HA153                               115.0000
 RHHA0226                            114.5000
 RHHA0227                            114.5000
 RH001                               114.5000
 RH002                               114.5000
 RHHA0057                            111.0400
 HA154                               116.1500
 HA155                               116.0000
 HA156                               116.0000
 HA157                               116.0000
 HA158                               115.8000
 HA159                               115.8000
 HA160                               115.5000
 HA161                               115.0000
 HA162                               115.0000
 HA163                               115.0000
 RH004                               114.5000
 RH005                               114.5000
 RH006                               114.5000
 RH007                               114.5000
 HA164                               116.1500
 HA165                               116.1500
 HA166                               116.1500
 HA167                               115.7000
 HA168                               115.3000
 HA169                               115.3000
 HA170                               115.3000
 HA171                               115.3000
 HA172                               115.3000
 HA173                               115.3000
 HA175                               115.3000
 HA174                               115.3000
 HA176                               115.3000
 HA177                               115.3000
 HA178                               115.5000
 JOHA0002                            115.5000
 JOHA0001                            115.5000
 JO001                               115.5000
 JO002                               115.5000
 JO003                               115.5000
 JO004                               115.5000
 JO005                               115.5000
 JO006                               115.5000
 JO007                               115.5000
 JO008                               115.5000
 JO009                               115.5000
 JOHA0573                            115.5000
 JOHA0571                            115.5000
 JO010                               115.0000
 JO011                               115.0000
 JO012                               115.0000
 JO013                               114.8000
 JO014                               114.8000
 JO015                               114.6000
 JO016                               114.6000
 JOHA0415                            115.0000
 JO017                               115.0000
 RHXX0061                            111.9200
 RH009                               114.2000
 RH010                               114.2000
 RHXX0062                            112.0200
 RHXX0063                            114.2000
 RHXX0408                            114.2000
 RHXX0064                            112.3600
 RH011                               114.2000
 RHXX0065                            114.2000
 RH012                               114.2000
 RH013                               114.7000
 RH014                               114.7000
 RH015                               112.2300
 RHXX0073                            114.9000
 RH016                               115.0000
 RH017                               115.0000
 RHXX0078                            114.9000
 RH018                               115.0000
 RH019                               115.0000
 RHXX0482                            115.0000
 RHXX0470                            115.0000
 RHXX0471                            115.0000
 RHXX0478                            115.0000
 RHXX0476                            115.0000
 RH020                               115.0000
 RHXX0474                            112.2000
 RHXX0467                            115.0000
 RH021                               115.0000
 RHXX0082                            112.7200
 RH022                               115.0000
 RHXX0079                            115.0000
 RH023                               115.0000
 RH024                               115.0000
 RHXX0076                            112.3900
 RH025                               115.0000
 RHXX0075                            115.0000
 RH026                               115.0000
 RH027                               115.0000
 RH028                               115.0000
 RHXX0443                            115.0000
 RHXX0461                            112.3700
 RH029                               115.0000
 RHXX0459                            115.0000
 RH030                               115.0000
 RHXX0458                            111.9500
 RHXX0457                            115.0000
 RHXX0456                            111.2500
 RH031                               115.0000
 RHXX0454                            115.0000
 RHXX0450                            115.0000
 RHXX0449                            111.0000
 RH032                               115.0000
 RH033                               115.0000
 RH034                               115.0000
 RH035                               115.0000
 RH036                               115.0000
 RHXX0084                            112.0000
 RH037                               115.0800
 RHXX0086                            112.3900
 RH038                               115.0800
 RH039                               115.0800
 RH040                               115.0000
 RHXX0081                            115.0000
 RHXX0080                            115.0000
 RH041                               115.0000
 RH042                               115.0000
 RH043                               114.5000
 RÜHR0409                            114.0000
 RH044                               114.0000
 RH045                               114.0000
 RH046                               114.0000
 RHXX0089                            114.2000
 RHXX0090                            113.8000
 RH047                               113.8000
 RH048                               113.2000
 RH049                               112.9000
 RHXX0077                            114.0000
 RHXX0189                            114.8000
 RH050                               114.5000
 RH051                               114.8000
 RHXX0190                            114.8000
 RHXX0185                            114.5000
 RHXX0186                            114.5000
 RH052                               114.2000
 RHXX0182                            114.2000
 RHXX0183                            110.9800
 RH053                               114.0000
 RH054                               113.5000
 RH055                               113.0800
 RHXX0192                            113.0800
 RHXX0197                            113.5000
 RH056                               113.5000
 RH057                               113.5000
 RH058                               113.5000
 RHXX0201                            110.7500
 RHXX0202                            113.2000
 RH059                               113.7000
 RHXX0205                            113.1700
 RHXX0207                            113.5000
 RH060                               110.9000
 RHXX0210                            111.9000
 RH061                               113.0800
 RH062                               113.0800
 RH063                               113.0800
 RH064                               114.0000
 RH065                               114.0000
 RH066                               114.0000
 RH067                               114.0000
 RHXX0422                            114.0000
 RH068                               114.0000
 RH069                               114.0000
 RH070                               114.0000
 RH071                               114.0000
 RH072                               114.0000
 RH073                               114.0000
 RH074                               114.0000
 RH075                               114.0000
 RH076                               114.0000
 RHNE0423                            114.0000
 RH077                               114.0000
 RH078                               114.0000
 RH079                               114.0000
 RH080                               114.0000
 RH081                               114.2000
 RH082                               114.2000
 RH083                               114.2000
 RHXX0055                            114.2000
 RHXX0053                            114.2000
 RHXX0585                            114.2000
 RHXX0052                            114.2000
 RH084                               114.2500
 RH085                               114.2500
 RHXX0047                            114.2500
 RHXX0046                            112.1800
 RHXX0033                            114.2500
 RH086                               114.2500
 RHXX0031                            111.8300
 RH087                               114.2500
 RHXX0028                            114.2500
 RH088                               114.2500
 RHXX0019                            114.2500
 RH089                               114.2500
 RH090                               114.2500
 RH091                               114.2500
 RH092                               114.2500
 RH093                               114.2500
 RH094                               114.2500
 RHXX0009                            114.2500
 RHXX0007                            114.2500
 RHXX0006                            112.4100
 RHXX0010                            114.2500
 RHXX0012                            114.2500
 RHXX0014                            114.2500
 RHXX0013                            114.2500
 RHXX0020                            112.0000
 RHXX0016                            111.5500
 RHXX0023                            111.5500
 RHXX0024                            111.3600
 RH095                               114.2500
 RH096                               114.2500
 RHXX0027                            114.2500
 RHXX0039                            114.2500
 RH097                               114.2700
 RH098                               114.2500
 RH099                               114.2500
 RHXX0035                            111.6200
 RH100                               114.2500
 RH101                               114.2700
 RH102                               114.2700
 RHXX0040                            111.7500
 RHXX0042                            114.2700
 RH103                               114.2500
 RHXX0044                            114.2500
 RHXX0050                            114.2500
 RH104                               114.1600
 RHXX0187                            111.9200
 RH105                               114.2700
 RHXX0003                            111.9000
 RHXX0371                            114.2500
 RHXX0586                            114.2500
 RHXX0587                            114.2500
 RH106                               114.2500
 RH107                               114.2500
 RH108                               114.2500
 RH109                               114.2500
 RH110                               114.2500
 RHXX0001                            114.2500
 RH111                               114.2500
 RH112                               114.2500
 RH113                               114.2500
 RHXX0390                            114.2500
 RH114                               114.2500
 RH115                               114.2500
 RH116                               114.2500
 RH117                               114.2500
 RH118                               114.2500
 RH119                               114.2500
 RH120                               114.2500
 RHXX0164                            114.2500
 RHXX0163                            111.7100
 RHXX0162                            114.2500
 RH121                               112.0900
 RH122                               114.2500
 RHXX0158                            114.2500
 RH123                               114.2500
 RH124                               114.2500
 RH125                               114.2500
 RHXX0156                            114.2500
 RHXX0153                            114.2500
 RHXX0160                            114.2500
 RHXX0154                            112.0900
 RHXX0151                            114.2500
 RHXX0146                            111.9500
 RHXX0144                            114.2500
 RHXX0145                            114.2500
 RHXX0138                            114.2500
 RHXX0134                            114.2500
 RHXX0137                            111.4400
 RHXX0168                            111.9000
 RHXX0171                            114.2500
 RHXX0177                            114.2500
 RHXX0368                            112.1400
 RHXX0169                            114.2500
 RHXX0589                            114.2500
 RHXX0430                            111.8100
 RHXX0174                            112.5100
 RHXX0139                            111.6300
 RHXX0141                            114.2500
 RHXX0129                            114.2500
 RHXX0130                            114.2500
 RHXX0128                            114.2500
 RH126                               114.2500
 RH127                               114.2500
 RH128                               114.2500
 RH129                               114.2500
 RH130                               114.2500
 RH131                               114.2500
 RH132                               114.2500
 RHXX0147                            114.2500
 RH133                               114.2500
 RH134                               114.2500
 RH135                               114.2500
 RH136                               114.2500
 RH137                               114.2500
 RH138                               114.2500
 RH139                               114.2500
 RH140                               114.2500
 RH141                               114.2500
 RH142                               114.2500
 RH143                               114.2500
 RH144                               114.2500
 RH145                               114.2500
 RH146                               114.2500
 RH147                               114.2500
 RH148                               114.1600
 RH149                               114.1600
 RHXX0122                            114.1600
 RHXX0121                            112.0900
 RH150                               114.1600
 RH151                               114.1600
 RHXX0118                            114.1600
 RHXX0116                            114.1600
 RHXX0115                            111.5000
 RH152                               111.5000
 RHXX0107                            114.1600
 RHXX0104                            114.1600
 RH153                               114.1600
 RH154                               112.9500
 RHXX0100                            109.0800
 RH155                               112.9500
 RHXX0098                            112.9500
 RHXX0097                            112.9000
 RH156                               114.1600
 RHXX0106                            114.1600
 RHXX0096                            110.0600
 RH157                               112.9000
 RHXX0228                            112.9500
 RHXX0283                            110.3400
 RH158                               110.4000
 RHXX0232                            110.5000
 RHXX0233                            111.0000
 RH159                               111.5000
 RHXX0588                            111.3100
 RH160                               111.2900
 RH161                               111.2000
 RHXX0286                            111.0000
 RHXX0287                            111.0000
 RHXX0288                            111.0000
 RHXX0289                            111.0000
 RH162                               111.0000
 RH163                               111.0000
 RH164                               111.0000
 RHXX0291                            111.0000
 JORH0297                            112.5000
 JORH0296                            113.0000
 RH165                               113.6000
 RHXX0293                            110.8500
 RHXX0292                            110.9000
 RHXX0294                            110.9300
 RHXX0270                            109.5000
 RHXX0269                            109.5000
 RHXX0267                            109.5000
 RH166                               109.5000
 RH167                               109.5000
 RHXX0271                            110.0000
 RHXX0272                            111.0000
 RH168                               110.5000
 RH169                               111.7000
 RH170                               111.5000
 RHXX0239                            111.8300
 RHXX0241                            111.6000
 RHXX0235                            112.0000
 RHXX0252                            111.6000
 RHXX0251                            111.5000
 RHXX0249                            111.4500
 RH171                               111.5000
 RH172                               111.5000
 RH173                               111.5000
 RHXX0247                            111.5000
 RH174                               112.0000
 RHXX0255                            112.0000
 RHXX0256                            112.2700
 RHXX0378                            112.0400
 RH175                               112.0000
 RHXX0379                            112.0000
 RHXX0380                            112.0000
 RHXX0381                            112.0000
 RH176                               112.0000